	 12 
 
N 	 0.057502 	 -0.005039 	  0.343227 
N 	 0.006707 	 -0.018372 	  -0.132830 
C 	 -0.007054 	 -0.047996 	  -0.001826 
C 	 0.011098 	 0.059661 	  0.175926 
C 	 -0.015660 	 -0.015642 	  -0.063878 
C 	 0.046820 	 0.005419 	  0.040670 
O 	 -0.067218 	 0.064333 	  -0.163493 
O 	 -0.009380 	 -0.059903 	  -0.135169 
H 	 0.058477 	 -0.018551 	  0.380974 
H 	 -0.045426 	 0.007900 	  -0.198351 
H 	 -0.032603 	 0.086779 	  0.425620 
H 	 -0.076106 	 0.161681 	  -0.588230 

