	 12 
 
N 	 -0.926348 	 -0.085981 	  0.035097 
N 	 0.972975 	 1.190911 	  0.041305 
C 	 -0.389514 	 1.190311 	  0.000145 
C 	 1.817058 	 0.113236 	  -0.029692 
C 	 1.155229 	 -1.212691 	  -0.065028 
C 	 -0.200258 	 -1.252228 	  0.007623 
O 	 -1.011447 	 -2.288678 	  0.013046 
O 	 -1.066201 	 2.186465 	  -0.044068 
H 	 -1.924115 	 -0.166824 	  0.089539 
H 	 1.364363 	 2.112580 	  0.096968 
H 	 2.787327 	 0.270215 	  0.428083 
H 	 1.730164 	 -2.117779 	  -0.148483 

